version 2
run FirstModel-0-20180513-00:27:10-10211
attr configname FirstModel
attr datetime 20180513-00:27:10
attr experiment FirstModel
attr inifile omnetpp.ini
attr iterationvars ""
attr iterationvarsf ""
attr measurement ""
attr network BatchQueueWV
attr processid 10211
attr repetition 0
attr replication #0
attr resultdir results
attr runnumber 0
attr seedset 0
param **.fifo true
param **.interArrivalTime exponential(6.67s)
param **.numJobsBatch geometric(0.33)

vector 0 BatchQueueWV.queue queueLength:vector ETV
attr interpolationmode sample-hold
attr title "queue length, vector"
vector 1 BatchQueueWV.sink lifeTime:vector ETV
attr interpolationmode none
attr title "lifetime of arrived jobs, vector"
attr unit s
0	0	0	0
0	3	5.308482945454	1
0	4	5.308482945454	2
0	6	6.308482945454	1
0	9	7.308482945454	0
0	16	11.301880736642	1
0	18	12.301880736642	0
0	35	49.254938463061	1
0	37	50.254938463061	0
0	49	59.007376179128	1
0	50	59.007376179128	2
0	51	59.007376179128	3
0	52	59.007376179128	4
0	54	60.007376179128	3
0	57	61.007376179128	2
0	61	61.362947637175	3
0	62	61.362947637175	4
0	63	61.362947637175	5
0	64	61.362947637175	6
0	65	61.362947637175	7
0	66	61.362947637175	8
0	67	61.362947637175	9
0	68	61.362947637175	10
0	70	61.752373380026	11
0	71	62.007376179128	10
0	74	63.007376179128	9
0	78	63.875808839441	10
0	79	63.875808839441	11
0	80	63.875808839441	12
0	81	64.007376179128	11
0	84	65.007376179128	10
0	87	66.007376179128	9
0	90	67.007376179128	8
0	93	68.007376179128	7
0	97	68.207615982274	8
0	98	69.007376179128	7
1	7	6.308482945454	1
1	10	7.308482945454	2
1	13	8.308482945454	3
1	19	12.301880736642	1
1	22	13.301880736642	2
1	27	24.70544083118	1
1	32	37.722248221529	1
1	38	50.254938463061	1
1	41	51.254938463061	2
1	46	56.771571327105	1
1	55	60.007376179128	1
1	58	61.007376179128	2
1	72	62.007376179128	3
1	75	63.007376179128	4
1	82	64.007376179128	5
1	85	65.007376179128	3.644428541953
1	88	66.007376179128	4.644428541953
1	91	67.007376179128	5.644428541953
1	94	68.007376179128	6.644428541953
